58
frame 9300 | Written by MDAnalysis XYZWriter (release 2.6.1)
      Mg     0.00000    0.00000    0.00000
       O     0.34000    1.63000   -1.08000
       H     1.05000    2.24000   -0.86000
       H    -0.21000    2.11000   -1.69000
       O    -0.53000   -1.57000    1.06000
       H    -1.03000   -1.46000    1.87000
       H    -0.38000   -2.52000    1.00000
       O     2.01000   -0.15000    0.59000
       H     2.66000    0.55000    0.54000
       H     2.53000   -0.93000    0.81000
       O     0.42000   -1.16000   -1.51000
       H     0.23000   -2.07000   -1.70000
       H     1.00000   -0.88000   -2.22000
       O    -1.86000    0.31000   -0.43000
       H    -2.37000   -0.38000   -0.85000
       H    -2.51000    0.95000   -0.15000
       O    -0.38000    1.15000    1.62000
       H     0.40000    1.02000    2.15000
       H    -0.92000    1.76000    2.12000
       O     1.30000   -2.45000    3.89000
       H     0.60000   -2.88000    3.40000
       H     2.07000   -2.51000    3.33000
       O     0.35000   -4.02000   -1.18000
       H    -0.34000   -4.68000   -1.31000
       H     1.16000   -4.51000   -1.29000
       O    -4.20000    1.79000    0.04000
       H    -4.64000    1.74000    0.89000
       H    -4.86000    1.53000   -0.59000
       O     2.53000    2.84000   -0.05000
       H     2.90000    2.86000    0.84000
       H     2.31000    3.75000   -0.23000
       O    -2.42000   -1.63000   -2.37000
       H    -2.77000   -2.21000   -1.70000
       H    -1.94000   -2.21000   -2.96000
       O    -1.40000    0.64000   -3.83000
       H    -1.92000    0.00000   -3.35000
       H    -1.23000    1.34000   -3.20000
       O    -0.39000   -3.94000    2.36000
       H    -1.24000   -4.33000    2.59000
       H     0.04000   -4.61000    1.83000
       O    -1.82000   -1.26000    3.60000
       H    -2.22000   -0.57000    4.13000
       H    -1.27000   -1.75000    4.21000
       O     2.23000    2.04000    2.85000
       H     1.91000    1.41000    3.50000
       H     3.01000    2.43000    3.26000
       O    -3.76000   -3.09000   -0.49000
       H    -4.15000   -3.93000   -0.24000
       H    -4.48000   -2.61000   -0.89000
       O     1.01000    0.20000    4.25000
       H     0.99000   -0.75000    4.27000
       H     0.79000    0.47000    5.14000
       O     2.21000   -0.61000   -3.45000
       H     2.32000   -0.18000   -4.30000
       H     3.10000   -0.66000   -3.10000
       O    -1.80000    3.00000   -2.42000
       H    -2.61000    3.02000   -2.93000
       H    -1.74000    3.89000   -2.05000
>
70
frame 9100 | Written by MDAnalysis XYZWriter (release 2.6.1)
      Mg     0.00000    0.00000    0.00000
       O    -1.43000   -0.58000   -1.15001
       H    -2.11000   -1.14000   -0.77000
       H    -1.79000   -0.33000   -2.01000
       O     1.09000    0.72000    1.45000
       H     1.60000    0.13000    2.01000
       H     1.09000    1.56001    1.92000
       O    -1.40000    1.45000    0.70000
       H    -1.83000    2.13000    0.18000
       H    -1.77000    1.54000    1.57000
       O     0.58000    1.49001   -1.20000
       H     0.25000    1.57000   -2.09000
       H     1.27000    2.16000   -1.14000
       O     1.52000   -1.14000   -0.58001
       H     2.43000   -1.07000   -0.89000
       H     1.39000   -2.07000   -0.43000
       O    -0.68000   -1.49000    1.27000
       H    -0.77000   -1.36000    2.21000
       H    -0.97000   -2.39000    1.13000
       O    -3.61000   -1.27000    0.34000
       H    -4.10000   -0.46000    0.49000
       H    -3.59000   -1.70000    1.19000
       O    -1.58000   -1.04000    3.87000
       H    -2.49000   -1.02000    3.57000
       H    -1.53000   -1.81000    4.43000
       O    -1.07000    1.69000   -3.40000
       H    -1.51000    2.52000   -3.55000
       H    -0.34000    1.69000   -4.02000
       O     0.17000    2.67001    3.62000
       H     0.31000    2.90001    4.54000
       H    -0.71000    2.30000    3.59999
       O     2.07000    3.81000   -0.99000
       H     1.86000    4.01000   -0.08001
       H     3.02000    3.74000   -1.02000
       O     2.24000    3.87000    1.82000
       H     2.91000    3.39000    2.31000
       H     1.41000    3.57000    2.20000
       O     0.78000   -3.71000   -0.51000
       H     0.92000   -4.47000   -1.09000
       H    -0.14000   -3.76000   -0.27000
       O    -0.95000   -0.73000   -4.65000
       H    -1.68000   -1.14000   -4.18000
       H    -1.07000    0.21000   -4.49000
       O    -3.74000    0.23000   -2.88000
       H    -3.70000    0.97000   -3.49000
       H    -3.90000    0.63000   -2.02000
       O     2.55000   -0.61000    3.24000
       H     2.11000   -0.65000    4.09000
       H     3.41000   -1.01000    3.39000
       O     3.51000    1.12000   -1.95000
       H     4.17000    1.34000   -2.61000
       H     4.00000    1.09000   -1.13000
       O    -2.37000    4.19000   -0.24000
       H    -3.01000    4.09000   -0.94001
       H    -2.87000    4.49000    0.50999
       O     4.12000   -1.71000   -1.71000
       H     4.38000   -2.43000   -2.28000
       H     3.91000   -0.99000   -2.31000
       O    -2.57000    1.73000    3.16000
       H    -3.33000    2.31001    3.14000
       H    -2.51000    1.45000    4.08000
       O     4.50000    1.35001    0.66000
       H     4.36000    1.61000    1.57000
       H     5.44000    1.46000    0.51999
       O     1.65000   -3.73000    2.68000
       H     1.51000   -3.66000    1.74000
       H     2.60000   -3.73000    2.78000
       O    -1.62000   -4.06000    1.02999
       H    -1.80000   -4.33000    1.93000
       H    -2.02000   -4.75000    0.49000
>
64
frame 9600 | Written by MDAnalysis XYZWriter (release 2.6.1)
      Mg     0.00000    0.00000    0.00000
       O    -1.55000   -0.53000    1.23000
       H    -1.83000   -0.39000    2.14000
       H    -2.26000   -1.04000    0.84000
       O    -1.30000    1.00000   -1.32000
       H    -2.25000    1.03000   -1.23000
       H    -1.08000    1.81000   -1.79000
       O     1.66000   -0.81000    0.93000
       H     2.53000   -0.42000    0.97000
       H     1.63000   -1.43000    1.65000
       O     1.47000    0.57000   -1.47000
       H     2.19000   -0.06000   -1.48000
       H     1.65000    1.15000   -2.21000
       O     0.35000    1.91000    0.89000
       H     1.10000    2.47000    1.04000
       H    -0.36000    2.51000    0.64000
       O    -0.17000   -1.75000   -1.13000
       H    -0.44000   -2.58000   -0.75000
       H     0.16000   -1.98000   -2.00000
       O    -1.04000   -4.22000   -0.34000
       H    -1.73000   -4.50000    0.26000
       H    -1.13000   -4.81000   -1.09000
       O     3.74000   -1.90000   -1.45000
       H     4.36000   -1.36000   -0.97000
       H     4.03000   -2.80000   -1.30000
       O    -1.63000    3.48000    0.57000
       H    -2.28000    3.68000    1.24000
       H    -1.82000    4.09000   -0.14000
       O     2.43000   -1.75000   -3.65000
       H     3.00000   -2.00000   -2.93000
       H     2.83000   -0.95000   -4.01000
       O     3.59000    3.12000   -0.67000
       H     3.18000    3.29000    0.17000
       H     3.93000    2.22000   -0.59000
       O    -0.62000    3.51000   -2.39000
       H    -0.93000    3.45000   -3.29000
       H    -0.95000    4.36000   -2.08000
       O     1.98000    2.39000   -3.51000
       H     1.38000    2.95000   -3.02000
       H     2.78000    2.91000   -3.60000
       O     1.67000   -2.74000    2.80000
       H     1.05000   -3.42000    3.04000
       H     2.02000   -2.42000    3.63000
       O    -4.02000    1.30000   -0.88000
       H    -4.51000    0.51000   -0.64000
       H    -4.67000    1.88000   -1.27000
       O    -2.54000   -0.58000    3.93000
       H    -3.16000    0.08000    4.23000
       H    -2.66000   -1.32000    4.53000
       O     0.34000   -0.26000    4.03000
       H    -0.55000   -0.43000    3.71000
       H     0.42000   -0.81000    4.81000
       O     2.31000    3.84000    1.56000
       H     2.89000    3.74000    2.31000
       H     1.93000    4.71000    1.66000
       O    -3.43000   -1.99000    0.18000
       H    -4.13000   -2.54000    0.54000
       H    -3.44000   -2.20000   -0.76000
       O     4.37000    0.48000    0.76000
       H     5.02000    0.17000    0.12000
       H     4.90000    0.92000    1.43000
       O    -2.22000   -0.51000   -4.34000
       H    -2.62000   -0.96000   -5.08000
       H    -2.54000   -0.98000   -3.57000
>
70
frame 6400 | Written by MDAnalysis XYZWriter (release 2.6.1)
      Mg     0.00000    0.00000    0.00000
       O    -1.62000    0.21000    1.21000
       H    -1.73000    0.99000    1.77000
       H    -2.33000   -0.38000    1.47000
       O     0.63000    1.95000    0.49000
       H     1.45000    2.15000    0.93999
       H     0.07000    2.71000    0.66000
       O     1.60000    0.04000   -1.28001
       H     1.99000   -0.77000   -1.60000
       H     2.32000    0.66000   -1.25000
       O    -1.20000    0.73000   -1.55000
       H    -1.52000    1.64000   -1.60000
       H    -1.65000    0.28000   -2.27000
       O    -0.30000   -1.95000   -0.44000
       H    -0.03000   -2.06000   -1.35001
       H    -0.21000   -2.83000   -0.05000
       O     1.33000   -0.66000    1.46000
       H     2.09000   -0.18000    1.80000
       H     1.10000   -1.27000    2.15000
       O    -2.46000    3.38000   -2.47000
       H    -2.65000    3.18000   -3.39000
       H    -1.98000    4.21000   -2.50000
       O     3.07000   -3.90000    0.29000
       H     3.16000   -3.44000   -0.55000
       H     2.20000   -4.30000    0.26000
       O     2.37000    1.96000    3.00000
       H     2.55000    2.63000    2.34000
       H     1.93000    2.43000    3.71000
       O    -2.64000   -0.62000   -3.40000
       H    -2.82000   -1.47000   -3.00000
       H    -3.43000   -0.42000   -3.90000
       O     0.20000   -4.51000    0.29000
       H    -0.16000   -4.78000    1.14000
       H     0.00000   -5.24000   -0.29000
       O     2.70000    1.76000   -3.76000
       H     3.64000    1.85000   -3.94000
       H     2.66000    1.38000   -2.89000
       O    -2.02000    2.01000    3.10000
       H    -1.16000    2.28000    3.43000
       H    -2.53000    2.81000    3.07000
       O    -4.36000   -0.67000   -0.76000
       H    -4.14000    0.03000   -0.14000
       H    -4.11000   -1.48000   -0.31001
       O    -4.53000    1.38000    1.27000
       H    -4.25000    2.20000    0.86000
       H    -4.41000    1.52000    2.20000
       O     0.49000   -2.35000   -3.02000
       H     0.83000   -1.79000   -3.72000
       H    -0.02000   -3.01000   -3.48000
       O     3.20000   -2.36000   -2.00000
       H     3.11000   -2.39000   -2.95000
       H     4.13000   -2.23000   -1.85000
       O    -3.30000   -1.78000    1.64000
       H    -3.91000   -2.47000    1.38000
       H    -3.08000   -1.98000    2.55000
       O     4.02000    1.24000   -1.16000
       H     4.27000    2.14000   -0.96000
       H     4.76000    0.72000   -0.85000
       O     0.60000   -2.51000    3.55000
       H     0.89000   -2.95000    4.35000
       H     0.01000   -3.13000    3.12000
       O    -0.81000    4.07000    0.57000
       H    -1.61000    4.44000    0.93999
       H    -0.34000    4.82000    0.21000
       O     2.89000    3.68000    1.02000
       H     3.80000    3.93000    0.87000
       H     2.39000    4.43000    0.70000
       O     4.26000   -1.00000    1.63000
       H     4.91000   -0.61000    1.05000
       H     4.30000   -0.47000    2.42000
>
64
frame 7400 | Written by MDAnalysis XYZWriter (release 2.6.1)
      Mg     0.00000    0.00000    0.00000
       O     0.73000   -1.90000   -0.08000
       H     1.66000   -1.90000    0.29000
       H     0.41000   -2.84000   -0.19000
       O     1.43000    0.42000    1.35000
       H     1.30000    0.36000    2.34000
       H     2.40000    0.41000    1.14000
       O    -0.99000   -0.50000    1.77000
       H    -1.20000   -1.40000    2.16000
       H    -1.32000    0.21000    2.38000
       O     1.31000    0.49000   -1.60000
       H     1.69000    1.41000   -1.67000
       H     1.89000   -0.15000   -2.11000
       O    -1.01000    1.82000    0.23000
       H    -2.00000    1.75000    0.14000
       H    -0.72000    2.77000    0.11000
       O    -1.45000   -0.74000   -1.23000
       H    -1.98000   -1.55000   -0.99000
       H    -1.59000   -0.53000   -2.20000
       O    -0.43000    3.40000    3.20000
       H    -0.89000    2.50000    3.17000
       H     0.06000    3.49000    4.06000
       O    -0.40000   -4.11000   -0.89000
       H    -0.64000   -4.87000   -0.28000
       H    -0.84000   -4.24000   -1.78000
       O     2.08000    2.93000   -2.04000
       H     1.86000    2.76000   -3.00000
       H     2.68000    3.72000   -1.97000
       O    -2.67000    1.86000   -3.59000
       H    -2.30000    0.96000   -3.82000
       H    -3.61000    1.75000   -3.26000
       O     3.03000   -2.24000    1.07000
       H     3.00000   -2.75000    1.93000
       H     3.46000   -2.81000    0.36000
       O    -3.56000    1.63000    0.33000
       H    -3.99000    0.77000    0.06000
       H    -4.06000    2.39000   -0.10000
       O     1.22000   -0.82000   -4.76000
       H     1.78000   -1.23000   -4.05000
       H     1.43000    0.16000   -4.82000
       O     2.67000   -1.54000   -2.61000
       H     3.59000   -1.33000   -2.95000
       H     2.49000   -2.51000   -2.71000
       O    -0.41000    4.50000   -0.68000
       H     0.29000    4.05000   -1.23000
       H    -0.07000    5.39000   -0.36000
       O    -1.48000   -2.83000    2.93000
       H    -2.37000   -3.10000    3.29000
       H    -0.77000   -3.40000    3.35000
       O     4.02000    1.66000    1.41000
       H     3.46000    2.39000    1.82000
       H     4.96000    1.75000    1.73000
       O     1.19000    0.15000    4.03000
       H     1.80000    0.74000    4.57000
       H     0.43000   -0.16000    4.60000
       O    -2.61000    1.30000    3.07000
       H    -3.08000    1.64000    3.89000
       H    -3.12000    1.57000    2.26000
       O    -1.76000   -0.59000   -4.04000
       H    -2.62000   -0.91000   -4.44000
       H    -1.03000   -0.69000   -4.71000
       O    -2.86000   -2.35000    0.55000
       H    -2.60000   -2.46000    1.50000
       H    -3.09000   -3.24000    0.15000
>
70
frame 8600 | Written by MDAnalysis XYZWriter (release 2.6.1)
      Mg     0.00000    0.00000    0.00000
       O    -1.51000    0.79000   -1.10000
       H    -1.49000    1.49000   -1.81000
       H    -2.45000    0.50000   -0.94000
       O     1.15000    1.69000   -0.38000
       H     2.13000    1.79000   -0.54000
       H     0.66000    2.46000   -0.80000
       O     0.69000   -0.95000   -1.71000
       H     0.20000   -1.09000   -2.56000
       H     1.59000   -1.38000   -1.77000
       O    -0.63000    0.80000    1.82000
       H    -1.11000    0.65000    2.69000
       H    -0.47000    1.78000    1.69000
       O     1.63000   -0.90000    0.84000
       H     1.71000   -0.81000    1.84000
       H     2.44000   -1.35000    0.48000
       O    -0.98000   -1.70000    0.53000
       H    -1.33000   -2.52000    0.09000
       H    -0.64000   -1.93000    1.44000
       O    -1.31000   -1.72000   -3.32000
       H    -1.52000   -0.77000   -3.51000
       H    -2.11000   -2.29000   -3.52000
       O     2.64000    0.89000   -3.91000
       H     1.89000    0.86000   -4.56000
       H     3.21000    1.69000   -4.09000
       O    -0.95000    3.25000    0.83000
       H    -1.91000    3.32000    0.56000
       H    -0.53000    4.15000    0.81000
       O     4.11000    1.38000   -1.64000
       H     3.87000    0.84000   -2.44000
       H     4.93000    1.92000   -1.84000
       O    -1.31000   -4.40000    0.02000
       H    -0.67000   -5.12000   -0.25000
       H    -2.19000   -4.82000    0.25000
       O     1.32000   -4.46000    1.41000
       H     0.69000   -4.81000    0.72000
       H     0.93000   -3.64000    1.83000
       O     4.06000   -2.05000   -0.30000
       H     4.62000   -1.33000    0.11000
       H     4.16000   -2.02000   -1.30000
       O    -1.54000    2.95000   -2.54000
       H    -2.33000    3.41000   -2.12000
       H    -0.70000    3.44000   -2.30000
       O    -3.32000   -0.15000    2.25000
       H    -4.23000    0.27000    2.30000
       H    -3.30000   -0.81000    1.50000
       O     1.68000    2.38000    3.21000
       H     2.15000    2.90000    2.51000
       H     0.82000    2.84000    3.45000
       O     1.63000   -0.42000    3.41000
       H     2.04000   -0.78000    4.25000
       H     1.41000    0.55000    3.54000
       O    -4.01000    0.02000   -1.39000
       H    -4.50000    0.21000   -2.24000
       H    -3.99000   -0.97000   -1.23000
       O     2.84000   -1.64000   -3.09000
       H     3.33000   -2.18000   -3.78000
       H     2.88000   -0.67000   -3.34000
       O    -4.12000   -2.37000   -0.13000
       H    -3.39000   -2.91000    0.31000
       H    -4.81000   -2.99000   -0.51000
       O    -0.08000   -2.67000    2.84000
       H    -0.89000   -2.96000    3.34000
       H     0.42000   -1.99000    3.38000
       O    -1.37000    0.79000   -4.36000
       H    -0.82000    0.71000   -5.19000
       H    -1.12000    1.63000   -3.88000
       O     0.71000    4.26000   -1.91000
       H     0.47000    4.87000   -1.15000
       H     1.22000    4.77000   -2.60000
>
70
frame 9500 | Written by MDAnalysis XYZWriter (release 2.6.1)
      Mg     0.00000    0.00000    0.00000
       O     0.75000   -0.44000    1.88000
       H     0.65000    0.00000    2.72000
       H     1.37000   -1.15000    2.05000
       O     1.45000   -1.21000   -0.79000
       H     1.66000   -2.09000   -0.48000
       H     2.13000   -1.01000   -1.43000
       O     1.46000    1.58000   -0.16000
       H     2.35000    1.61000   -0.52000
       H     1.29000    2.47000    0.13000
       O    -1.60000    1.22000    0.58000
       H    -2.43000    0.78000    0.45000
       H    -1.83000    2.15000    0.67000
       O    -0.42000    0.43000   -2.06000
       H    -0.31000    1.35000   -2.32000
       H    -0.41000   -0.06000   -2.88000
       O    -1.28000   -1.58000   -0.03000
       H    -1.72000   -1.98000    0.72000
       H    -1.66000   -2.02000   -0.80000
       O    -3.85000    0.14000    0.06000
       H    -4.63000    0.43000    0.54000
       H    -4.16000    0.03000   -0.84000
       O    -2.11000   -0.38000   -4.50000
       H    -1.75000   -0.94000   -5.19000
       H    -2.76000    0.16000   -4.95000
       O    -2.82000   -3.06000    1.62000
       H    -2.56000   -3.25000    2.52000
       H    -3.78000   -3.10000    1.63000
       O     1.06000    4.11000    1.22000
       H     1.80000    3.66000    1.63000
       H     0.46000    4.29000    1.94000
       O     2.51000   -2.31000    2.32000
       H     3.37000   -1.90000    2.29000
       H     2.63000   -3.14000    1.86000
       O    -0.01000    2.74000   -3.20000
       H    -0.73000    3.26000   -3.56000
       H     0.49000    3.36000   -2.67000
       O    -2.64000   -2.97000   -2.02000
       H    -2.68000   -3.90000   -1.82000
       H    -3.10000   -2.88000   -2.86000
       O     0.22000   -2.79000   -3.24000
       H     0.65000   -3.09000   -2.44000
       H    -0.62000   -3.26000   -3.24000
       O     3.22000    2.95000    2.38000
       H     3.83000    3.58000    2.76000
       H     3.45000    2.11000    2.78000
       O    -2.47000    1.40000    3.56000
       H    -2.64000    0.60000    4.07000
       H    -3.34000    1.70000    3.30000
       O    -2.12000    3.74000    0.05000
       H    -2.34000    4.25000    0.83000
       H    -1.53000    4.32000   -0.45000
       O     3.64000    2.40000   -2.18000
       H     3.91000    3.24000   -1.81000
       H     3.91000    2.45000   -3.10000
       O    -0.18000   -2.10000    4.37000
       H     0.59000   -2.45000    3.91000
       H    -0.86000   -2.76000    4.25000
       O     3.33000   -0.37000   -2.42000
       H     3.55000    0.56000   -2.37000
       H     3.30000   -0.56000   -3.36000
       O     1.38000   -3.81000   -0.49000
       H     0.75000   -4.18000    0.13000
       H     1.90000   -4.56000   -0.77000
       O    -4.06000   -0.16000   -2.62000
       H    -4.65000    0.14000   -3.31000
       H    -3.31000   -0.52000   -3.09000
       O     0.22000    1.84000    3.47000
       H    -0.71000    1.66000    3.58000
       H     0.26000    2.71000    3.08000
>
67
frame 6900 | Written by MDAnalysis XYZWriter (release 2.6.1)
      Mg     0.00000    0.00000    0.00000
       O     0.08000   -1.58000    1.54000
       H     0.61000   -1.22000    2.24000
       H    -0.35000   -2.34000    1.93000
       O     1.51000    0.76000    1.23000
       H     2.44000    0.85000    1.04000
       H     1.37000    1.27000    2.03000
       O    -1.58000    0.68000    1.22000
       H    -1.57000    0.65000    2.17000
       H    -2.24000    1.35000    1.01000
       O    -0.23000    1.90000   -0.97000
       H    -0.95000    2.13000   -1.56000
       H     0.01000    2.72000   -0.55000
       O    -1.24000   -1.06000   -1.27000
       H    -2.17000   -1.04000   -1.52000
       H    -0.90000   -1.84000   -1.70000
       O     1.44000   -0.60000   -1.36000
       H     1.84000   -0.15000   -2.11000
       H     1.56000   -1.53000   -1.56000
       O    -2.31000    0.18000    3.91000
       H    -3.02000   -0.47000    3.88000
       H    -2.33000    0.51000    4.81000
       O    -0.89000   -3.41000    3.17000
       H    -1.01000   -3.19000    4.10000
       H    -0.40000   -4.23000    3.18000
       O    -3.14000    2.94000    0.61000
       H    -3.12000    3.02000   -0.35000
       H    -4.04000    2.70000    0.81000
       O     4.37000   -0.48000   -1.49000
       H     5.30000   -0.61000   -1.31000
       H     4.36000    0.14000   -2.22000
       O    -0.69000   -3.17000   -2.66000
       H    -1.02000   -2.91000   -3.52000
       H    -0.85000   -4.12000   -2.62000
       O    -2.00000   -4.16000   -0.02000
       H    -2.43000   -4.64000   -0.73000
       H    -1.93000   -3.26000   -0.35000
       O     3.11000    2.22000   -2.49000
       H     3.65000    2.83000   -2.00000
       H     2.64000    1.73000   -1.81000
       O     1.88000   -3.55000   -2.17000
       H     0.98000   -3.43000   -2.47000
       H     1.95000   -4.49000   -1.99000
       O     0.29000    1.46000    3.38000
       H    -0.07000    2.30000    3.68000
       H    -0.19000    0.80000    3.88000
       O     3.94000   -1.00000    2.22000
       H     4.34000   -0.24000    2.65000
       H     3.67000   -1.57000    2.94000
       O     0.27000    3.98000    0.47000
       H     0.28000    4.22000    1.39000
       H     1.02000    4.45000    0.09000
       O     1.40000   -1.48000    3.94000
       H     1.24000   -2.28000    4.43000
       H     1.57000   -0.82000    4.61000
       O     0.68000   -0.21000   -4.24000
       H     0.54000    0.64000   -4.65000
       H     0.03000   -0.78000   -4.66000
       O    -3.01000    1.67000   -2.21000
       H    -3.91000    1.44000   -1.97000
       H    -3.03000    2.61000   -2.37000
       O    -3.91000   -1.18000   -1.21000
       H    -4.70000   -0.69000   -1.45000
       H    -4.24000   -2.03000   -0.92000
       O     3.73000    2.26000    0.35000
       H     3.56000    3.16000    0.62000
       H     4.68000    2.18000    0.39000

